Circuit: * C:\Users\JoaoPotier\Desktop\5ºAno\TESE\2_Fase\Circuitos Eletricos\Sinais Digitais\Conversao_24-3.3.asc

Direct Newton iteration for .op point succeeded.

Date: Fri Sep  8 12:11:57 2023
Total elapsed time: 0.105 seconds.

tnom = 27
temp = 27
method = modified trap
totiter = 3817
traniter = 3804
tranpoints = 1572
accept = 1419
rejected = 153
matrix size = 11
fillins = 0
solver = Normal
Avg thread counts: 1.1/1.2/1.2/1.1
Matrix Compiler1: 342 bytes object code size  0.4/0.3/[0.2]
Matrix Compiler2: 811 bytes object code size  0.2/0.4/[0.2]

