Circuit: * C:\Users\JoaoPotier\Desktop\5ºAno\TESE\2_Fase\Circuitos Eletricos\Sinais Digitais\Conversao_3.3-24.asc

Warning: Multiple definitions of model "2scr375p" Type: BJT
Warning: Multiple definitions of model "bc857b" Type: BJT
Warning: Multiple definitions of model "bc847c" Type: BJT
Warning: Multiple definitions of model "bc847b" Type: BJT
WARNING: Less than two connections to node amplifiedoutput.  This node is used by q1.
Direct Newton iteration for .op point succeeded.

Date: Fri Sep  8 12:11:02 2023
Total elapsed time: 0.151 seconds.

tnom = 27
temp = 27
method = modified trap
totiter = 3940
traniter = 3911
tranpoints = 1640
accept = 1462
rejected = 178
matrix size = 15
fillins = 0
solver = Normal
Avg thread counts: 1.1/1.2/1.2/1.1
Matrix Compiler1: 720 bytes object code size  0.6/0.4/[0.3]
Matrix Compiler2: 1.18 KB object code size  0.3/0.6/[0.2]

