Circuit: * C:\Users\JoaoPotier\Desktop\5ºAno\TESE\2_Fase\Circuitos Eletricos\Sinais Analógicos\ADCStepDown.asc

.OP point found by inspection.

Date: Thu Aug 31 18:35:52 2023
Total elapsed time: 0.094 seconds.

tnom = 27
temp = 27
method = modified trap
totiter = 2094
traniter = 2094
tranpoints = 1048
accept = 1048
rejected = 0
matrix size = 3
fillins = 0
solver = Normal
Avg thread counts: 1.1/1.3/1.3/1.1
Matrix Compiler1: 68 bytes object code size  0.2/0.2/[0.2]
Matrix Compiler2: 175 bytes object code size  0.1/0.2/[0.1]

